**************************************
*      Model Generated by MODPEX     *
*Copyright(c) Symmetry Design Systems*
*         All Rights Reserved        *
*    UNPUBLISHED LICENSED SOFTWARE   *
*   Contains Proprietary Information *
*      Which is The Property of      *
*     SYMMETRY OR ITS LICENSORS      *
*    Modeling services provided by   *
* Interface Technologies www.i-t.com *
**************************************
.MODEL mur410rl d
+IS=1.39645e-08 RS=0.01 N=1.56893 EG=1.046
+XTI=0.5 BV=100 IBV=5e-06 CJO=1.70872e-10
+VJ=0.4 M=0.339595 FC=0.5 TT=5.10525e-08
+KF=0 AF=1
* Model generated on September 28, 2003
* Model format: PSPICE
